*SRC=BC807-16W;DI_BC807-16W;BJTs PNP; Si;  45.0V  0.500A  163MHz   Diodes Inc. PNP BJT
.MODEL DI_BC807-16W  NPN (IS=49.9f NF=1.00 BF=342 VAF=121
+ IKF=0.182 ISE=19.6p NE=2.00 BR=4.00 NR=1.00
+ VAR=20.0 IKR=0.450 RE=0.663 RB=2.65 RC=0.265
+ XTB=1.5 CJE=107p VJE=1.10 MJE=0.500 CJC=34.7p VJC=0.300
+ MJC=0.300 TF=841p TR=112n EG=1.12